archive/legacy/urbanopt/grid_models/electrification_scenario/Shapefiles/StreetMap_nodes.csv
Node,OH,NomV,Vpu,P,Q,Qmin,Qmax,Vpu_obj,Phases,PhasesV,Subest,Feeder,
37e694c4-c835-4725-ad26-687c6c76ea0b_0  ,S ,0.00 ,0 ,0 ,0 ,0 ,0 ,0 ,0P ,0P_BT ,True ,True ,
37e694c4-c835-4725-ad26-687c6c76ea0b_1  ,S ,0.00 ,0 ,0 ,0 ,0 ,0 ,0 ,0P ,0P_BT ,True ,True ,
37e694c4-c835-4725-ad26-687c6c76ea0b_2  ,S ,0.00 ,0 ,0 ,0 ,0 ,0 ,0 ,0P ,0P_BT ,True ,True ,
37e694c4-c835-4725-ad26-687c6c76ea0b_3  ,S ,0.00 ,0 ,0 ,0 ,0 ,0 ,0 ,0P ,0P_BT ,True ,True ,
37e694c4-c835-4725-ad26-687c6c76ea0b_4  ,S ,0.00 ,0 ,0 ,0 ,0 ,0 ,0 ,0P ,0P_BT ,True ,True ,
37e694c4-c835-4725-ad26-687c6c76ea0b_5  ,S ,0.00 ,0 ,0 ,0 ,0 ,0 ,0 ,0P ,0P_BT ,True ,True ,
37e694c4-c835-4725-ad26-687c6c76ea0b_6  ,S ,0.00 ,0 ,0 ,0 ,0 ,0 ,0 ,0P ,0P_BT ,True ,True ,
37e694c4-c835-4725-ad26-687c6c76ea0b_7  ,S ,0.00 ,0 ,0 ,0 ,0 ,0 ,0 ,0P ,0P_BT ,True ,True ,
37e694c4-c835-4725-ad26-687c6c76ea0b_8  ,S ,0.00 ,0 ,0 ,0 ,0 ,0 ,0 ,0P ,0P_BT ,True ,True ,
37e694c4-c835-4725-ad26-687c6c76ea0b_9  ,S ,0.00 ,0 ,0 ,0 ,0 ,0 ,0 ,0P ,0P_BT ,True ,True ,
37e694c4-c835-4725-ad26-687c6c76ea0b_10 ,S ,0.00 ,0 ,0 ,0 ,0 ,0 ,0 ,0P ,0P_BT ,True ,True ,
37e694c4-c835-4725-ad26-687c6c76ea0b_11 ,S ,0.00 ,0 ,0 ,0 ,0 ,0 ,0 ,0P ,0P_BT ,True ,True ,
37e694c4-c835-4725-ad26-687c6c76ea0b_12 ,S ,0.00 ,0 ,0 ,0 ,0 ,0 ,0 ,0P ,0P_BT ,True ,True ,
37e694c4-c835-4725-ad26-687c6c76ea0b_13 ,S ,0.00 ,0 ,0 ,0 ,0 ,0 ,0 ,0P ,0P_BT ,True ,True ,
37e694c4-c835-4725-ad26-687c6c76ea0b_14 ,S ,0.00 ,0 ,0 ,0 ,0 ,0 ,0 ,0P ,0P_BT ,True ,True ,
37e694c4-c835-4725-ad26-687c6c76ea0b_15 ,S ,0.00 ,0 ,0 ,0 ,0 ,0 ,0 ,0P ,0P_BT ,True ,True ,
37e694c4-c835-4725-ad26-687c6c76ea0b_16 ,S ,0.00 ,0 ,0 ,0 ,0 ,0 ,0 ,0P ,0P_BT ,True ,True ,
37e694c4-c835-4725-ad26-687c6c76ea0b_17 ,S ,0.00 ,0 ,0 ,0 ,0 ,0 ,0 ,0P ,0P_BT ,True ,True ,
37e694c4-c835-4725-ad26-687c6c76ea0b_18 ,S ,0.00 ,0 ,0 ,0 ,0 ,0 ,0 ,0P ,0P_BT ,True ,True ,
37e694c4-c835-4725-ad26-687c6c76ea0b_19 ,S ,0.00 ,0 ,0 ,0 ,0 ,0 ,0 ,0P ,0P_BT ,True ,True ,
37e694c4-c835-4725-ad26-687c6c76ea0b_20 ,S ,0.00 ,0 ,0 ,0 ,0 ,0 ,0 ,0P ,0P_BT ,True ,True ,
37e694c4-c835-4725-ad26-687c6c76ea0b_21 ,S ,0.00 ,0 ,0 ,0 ,0 ,0 ,0 ,0P ,0P_BT ,True ,True ,
37e694c4-c835-4725-ad26-687c6c76ea0b_22 ,S ,0.00 ,0 ,0 ,0 ,0 ,0 ,0 ,0P ,0P_BT ,True ,True ,
37e694c4-c835-4725-ad26-687c6c76ea0b_23 ,S ,0.00 ,0 ,0 ,0 ,0 ,0 ,0 ,0P ,0P_BT ,True ,True ,
37e694c4-c835-4725-ad26-687c6c76ea0b_24 ,S ,0.00 ,0 ,0 ,0 ,0 ,0 ,0 ,0P ,0P_BT ,True ,True ,
37e694c4-c835-4725-ad26-687c6c76ea0b_25 ,S ,0.00 ,0 ,0 ,0 ,0 ,0 ,0 ,0P ,0P_BT ,True ,True ,
30b525e9-a961-4634-a2ed-6133921235c6_1  ,S ,0.00 ,0 ,0 ,0 ,0 ,0 ,0 ,0P ,0P_BT ,True ,True ,
30b525e9-a961-4634-a2ed-6133921235c6_2  ,S ,0.00 ,0 ,0 ,0 ,0 ,0 ,0 ,0P ,0P_BT ,True ,True ,
30b525e9-a961-4634-a2ed-6133921235c6_3  ,S ,0.00 ,0 ,0 ,0 ,0 ,0 ,0 ,0P ,0P_BT ,True ,True ,
30b525e9-a961-4634-a2ed-6133921235c6_4  ,S ,0.00 ,0 ,0 ,0 ,0 ,0 ,0 ,0P ,0P_BT ,True ,True ,
30b525e9-a961-4634-a2ed-6133921235c6_5  ,S ,0.00 ,0 ,0 ,0 ,0 ,0 ,0 ,0P ,0P_BT ,True ,True ,
30b525e9-a961-4634-a2ed-6133921235c6_6  ,S ,0.00 ,0 ,0 ,0 ,0 ,0 ,0 ,0P ,0P_BT ,True ,True ,
30b525e9-a961-4634-a2ed-6133921235c6_7  ,S ,0.00 ,0 ,0 ,0 ,0 ,0 ,0 ,0P ,0P_BT ,True ,True ,
30b525e9-a961-4634-a2ed-6133921235c6_8  ,S ,0.00 ,0 ,0 ,0 ,0 ,0 ,0 ,0P ,0P_BT ,True ,True ,
30b525e9-a961-4634-a2ed-6133921235c6_9  ,S ,0.00 ,0 ,0 ,0 ,0 ,0 ,0 ,0P ,0P_BT ,True ,True ,
30b525e9-a961-4634-a2ed-6133921235c6_10 ,S ,0.00 ,0 ,0 ,0 ,0 ,0 ,0 ,0P ,0P_BT ,True ,True ,
30b525e9-a961-4634-a2ed-6133921235c6_11 ,S ,0.00 ,0 ,0 ,0 ,0 ,0 ,0 ,0P ,0P_BT ,True ,True ,
30b525e9-a961-4634-a2ed-6133921235c6_12 ,S ,0.00 ,0 ,0 ,0 ,0 ,0 ,0 ,0P ,0P_BT ,True ,True ,
30b525e9-a961-4634-a2ed-6133921235c6_13 ,S ,0.00 ,0 ,0 ,0 ,0 ,0 ,0 ,0P ,0P_BT ,True ,True ,
30b525e9-a961-4634-a2ed-6133921235c6_14 ,S ,0.00 ,0 ,0 ,0 ,0 ,0 ,0 ,0P ,0P_BT ,True ,True ,
30b525e9-a961-4634-a2ed-6133921235c6_15 ,S ,0.00 ,0 ,0 ,0 ,0 ,0 ,0 ,0P ,0P_BT ,True ,True ,
30b525e9-a961-4634-a2ed-6133921235c6_16 ,S ,0.00 ,0 ,0 ,0 ,0 ,0 ,0 ,0P ,0P_BT ,True ,True ,
30b525e9-a961-4634-a2ed-6133921235c6_17 ,S ,0.00 ,0 ,0 ,0 ,0 ,0 ,0 ,0P ,0P_BT ,True ,True ,
30b525e9-a961-4634-a2ed-6133921235c6_18 ,S ,0.00 ,0 ,0 ,0 ,0 ,0 ,0 ,0P ,0P_BT ,True ,True ,
30b525e9-a961-4634-a2ed-6133921235c6_19 ,S ,0.00 ,0 ,0 ,0 ,0 ,0 ,0 ,0P ,0P_BT ,True ,True ,
30b525e9-a961-4634-a2ed-6133921235c6_20 ,S ,0.00 ,0 ,0 ,0 ,0 ,0 ,0 ,0P ,0P_BT ,True ,True ,
69470e30-0be1-439e-8496-454de554d43a_1  ,S ,0.00 ,0 ,0 ,0 ,0 ,0 ,0 ,0P ,0P_BT ,True ,True ,
69470e30-0be1-439e-8496-454de554d43a_2  ,S ,0.00 ,0 ,0 ,0 ,0 ,0 ,0 ,0P ,0P_BT ,True ,True ,
69470e30-0be1-439e-8496-454de554d43a_3  ,S ,0.00 ,0 ,0 ,0 ,0 ,0 ,0 ,0P ,0P_BT ,True ,True ,
69470e30-0be1-439e-8496-454de554d43a_4  ,S ,0.00 ,0 ,0 ,0 ,0 ,0 ,0 ,0P ,0P_BT ,True ,True ,
69470e30-0be1-439e-8496-454de554d43a_5  ,S ,0.00 ,0 ,0 ,0 ,0 ,0 ,0 ,0P ,0P_BT ,True ,True ,
69470e30-0be1-439e-8496-454de554d43a_6  ,S ,0.00 ,0 ,0 ,0 ,0 ,0 ,0 ,0P ,0P_BT ,True ,True ,
69470e30-0be1-439e-8496-454de554d43a_7  ,S ,0.00 ,0 ,0 ,0 ,0 ,0 ,0 ,0P ,0P_BT ,True ,True ,
69470e30-0be1-439e-8496-454de554d43a_8  ,S ,0.00 ,0 ,0 ,0 ,0 ,0 ,0 ,0P ,0P_BT ,True ,True ,
69470e30-0be1-439e-8496-454de554d43a_9  ,S ,0.00 ,0 ,0 ,0 ,0 ,0 ,0 ,0P ,0P_BT ,True ,True ,
69470e30-0be1-439e-8496-454de554d43a_10 ,S ,0.00 ,0 ,0 ,0 ,0 ,0 ,0 ,0P ,0P_BT ,True ,True ,
69470e30-0be1-439e-8496-454de554d43a_11 ,S ,0.00 ,0 ,0 ,0 ,0 ,0 ,0 ,0P ,0P_BT ,True ,True ,
69470e30-0be1-439e-8496-454de554d43a_12 ,S ,0.00 ,0 ,0 ,0 ,0 ,0 ,0 ,0P ,0P_BT ,True ,True ,
69470e30-0be1-439e-8496-454de554d43a_13 ,S ,0.00 ,0 ,0 ,0 ,0 ,0 ,0 ,0P ,0P_BT ,True ,True ,
69470e30-0be1-439e-8496-454de554d43a_14 ,S ,0.00 ,0 ,0 ,0 ,0 ,0 ,0 ,0P ,0P_BT ,True ,True ,
69470e30-0be1-439e-8496-454de554d43a_15 ,S ,0.00 ,0 ,0 ,0 ,0 ,0 ,0 ,0P ,0P_BT ,True ,True ,
69470e30-0be1-439e-8496-454de554d43a_16 ,S ,0.00 ,0 ,0 ,0 ,0 ,0 ,0 ,0P ,0P_BT ,True ,True ,
69470e30-0be1-439e-8496-454de554d43a_17 ,S ,0.00 ,0 ,0 ,0 ,0 ,0 ,0 ,0P ,0P_BT ,True ,True ,
69470e30-0be1-439e-8496-454de554d43a_18 ,S ,0.00 ,0 ,0 ,0 ,0 ,0 ,0 ,0P ,0P_BT ,True ,True ,
69470e30-0be1-439e-8496-454de554d43a_19 ,S ,0.00 ,0 ,0 ,0 ,0 ,0 ,0 ,0P ,0P_BT ,True ,True ,
69470e30-0be1-439e-8496-454de554d43a_20 ,S ,0.00 ,0 ,0 ,0 ,0 ,0 ,0 ,0P ,0P_BT ,True ,True ,
69470e30-0be1-439e-8496-454de554d43a_21 ,S ,0.00 ,0 ,0 ,0 ,0 ,0 ,0 ,0P ,0P_BT ,True ,True ,
69470e30-0be1-439e-8496-454de554d43a_22 ,S ,0.00 ,0 ,0 ,0 ,0 ,0 ,0 ,0P ,0P_BT ,True ,True ,
69470e30-0be1-439e-8496-454de554d43a_23 ,S ,0.00 ,0 ,0 ,0 ,0 ,0 ,0 ,0P ,0P_BT ,True ,True ,
69470e30-0be1-439e-8496-454de554d43a_24 ,S ,0.00 ,0 ,0 ,0 ,0 ,0 ,0 ,0P ,0P_BT ,True ,True ,
69470e30-0be1-439e-8496-454de554d43a_25 ,S ,0.00 ,0 ,0 ,0 ,0 ,0 ,0 ,0P ,0P_BT ,True ,True ,
678f2368-75a0-4dca-bb8e-5b68e9ed70cd_1  ,S ,0.00 ,0 ,0 ,0 ,0 ,0 ,0 ,0P ,0P_BT ,True ,True ,
678f2368-75a0-4dca-bb8e-5b68e9ed70cd_2  ,S ,0.00 ,0 ,0 ,0 ,0 ,0 ,0 ,0P ,0P_BT ,True ,True ,
678f2368-75a0-4dca-bb8e-5b68e9ed70cd_3  ,S ,0.00 ,0 ,0 ,0 ,0 ,0 ,0 ,0P ,0P_BT ,True ,True ,
678f2368-75a0-4dca-bb8e-5b68e9ed70cd_4  ,S ,0.00 ,0 ,0 ,0 ,0 ,0 ,0 ,0P ,0P_BT ,True ,True ,
678f2368-75a0-4dca-bb8e-5b68e9ed70cd_5  ,S ,0.00 ,0 ,0 ,0 ,0 ,0 ,0 ,0P ,0P_BT ,True ,True ,
678f2368-75a0-4dca-bb8e-5b68e9ed70cd_6  ,S ,0.00 ,0 ,0 ,0 ,0 ,0 ,0 ,0P ,0P_BT ,True ,True ,
678f2368-75a0-4dca-bb8e-5b68e9ed70cd_7  ,S ,0.00 ,0 ,0 ,0 ,0 ,0 ,0 ,0P ,0P_BT ,True ,True ,
678f2368-75a0-4dca-bb8e-5b68e9ed70cd_8  ,S ,0.00 ,0 ,0 ,0 ,0 ,0 ,0 ,0P ,0P_BT ,True ,True ,
678f2368-75a0-4dca-bb8e-5b68e9ed70cd_9  ,S ,0.00 ,0 ,0 ,0 ,0 ,0 ,0 ,0P ,0P_BT ,True ,True ,
678f2368-75a0-4dca-bb8e-5b68e9ed70cd_10 ,S ,0.00 ,0 ,0 ,0 ,0 ,0 ,0 ,0P ,0P_BT ,True ,True ,
678f2368-75a0-4dca-bb8e-5b68e9ed70cd_11 ,S ,0.00 ,0 ,0 ,0 ,0 ,0 ,0 ,0P ,0P_BT ,True ,True ,
678f2368-75a0-4dca-bb8e-5b68e9ed70cd_12 ,S ,0.00 ,0 ,0 ,0 ,0 ,0 ,0 ,0P ,0P_BT ,True ,True ,
678f2368-75a0-4dca-bb8e-5b68e9ed70cd_13 ,S ,0.00 ,0 ,0 ,0 ,0 ,0 ,0 ,0P ,0P_BT ,True ,True ,
678f2368-75a0-4dca-bb8e-5b68e9ed70cd_14 ,S ,0.00 ,0 ,0 ,0 ,0 ,0 ,0 ,0P ,0P_BT ,True ,True ,
678f2368-75a0-4dca-bb8e-5b68e9ed70cd_15 ,S ,0.00 ,0 ,0 ,0 ,0 ,0 ,0 ,0P ,0P_BT ,True ,True ,
678f2368-75a0-4dca-bb8e-5b68e9ed70cd_16 ,S ,0.00 ,0 ,0 ,0 ,0 ,0 ,0 ,0P ,0P_BT ,True ,True ,
678f2368-75a0-4dca-bb8e-5b68e9ed70cd_17 ,S ,0.00 ,0 ,0 ,0 ,0 ,0 ,0 ,0P ,0P_BT ,True ,True ,
678f2368-75a0-4dca-bb8e-5b68e9ed70cd_18 ,S ,0.00 ,0 ,0 ,0 ,0 ,0 ,0 ,0P ,0P_BT ,True ,True ,
678f2368-75a0-4dca-bb8e-5b68e9ed70cd_19 ,S ,0.00 ,0 ,0 ,0 ,0 ,0 ,0 ,0P ,0P_BT ,True ,True ,
1c728f89-cf85-4329-9749-b05192b60374_0  ,S ,0.00 ,0 ,0 ,0 ,0 ,0 ,0 ,0P ,0P_BT ,True ,True ,
1c728f89-cf85-4329-9749-b05192b60374_1  ,S ,0.00 ,0 ,0 ,0 ,0 ,0 ,0 ,0P ,0P_BT ,True ,True ,
1c728f89-cf85-4329-9749-b05192b60374_2  ,S ,0.00 ,0 ,0 ,0 ,0 ,0 ,0 ,0P ,0P_BT ,True ,True ,
1c728f89-cf85-4329-9749-b05192b60374_3  ,S ,0.00 ,0 ,0 ,0 ,0 ,0 ,0 ,0P ,0P_BT ,True ,True ,
1c728f89-cf85-4329-9749-b05192b60374_4  ,S ,0.00 ,0 ,0 ,0 ,0 ,0 ,0 ,0P ,0P_BT ,True ,True ,
1c728f89-cf85-4329-9749-b05192b60374_5  ,S ,0.00 ,0 ,0 ,0 ,0 ,0 ,0 ,0P ,0P_BT ,True ,True ,
1c728f89-cf85-4329-9749-b05192b60374_6  ,S ,0.00 ,0 ,0 ,0 ,0 ,0 ,0 ,0P ,0P_BT ,True ,True ,
1c728f89-cf85-4329-9749-b05192b60374_7  ,S ,0.00 ,0 ,0 ,0 ,0 ,0 ,0 ,0P ,0P_BT ,True ,True ,
1c728f89-cf85-4329-9749-b05192b60374_8  ,S ,0.00 ,0 ,0 ,0 ,0 ,0 ,0 ,0P ,0P_BT ,True ,True ,
1c728f89-cf85-4329-9749-b05192b60374_9  ,S ,0.00 ,0 ,0 ,0 ,0 ,0 ,0 ,0P ,0P_BT ,True ,True ,
1c728f89-cf85-4329-9749-b05192b60374_10 ,S ,0.00 ,0 ,0 ,0 ,0 ,0 ,0 ,0P ,0P_BT ,True ,True ,
1c728f89-cf85-4329-9749-b05192b60374_11 ,S ,0.00 ,0 ,0 ,0 ,0 ,0 ,0 ,0P ,0P_BT ,True ,True ,
1c728f89-cf85-4329-9749-b05192b60374_12 ,S ,0.00 ,0 ,0 ,0 ,0 ,0 ,0 ,0P ,0P_BT ,True ,True ,
1c728f89-cf85-4329-9749-b05192b60374_13 ,S ,0.00 ,0 ,0 ,0 ,0 ,0 ,0 ,0P ,0P_BT ,True ,True ,
1c728f89-cf85-4329-9749-b05192b60374_14 ,S ,0.00 ,0 ,0 ,0 ,0 ,0 ,0 ,0P ,0P_BT ,True ,True ,
1c728f89-cf85-4329-9749-b05192b60374_15 ,S ,0.00 ,0 ,0 ,0 ,0 ,0 ,0 ,0P ,0P_BT ,True ,True ,
1c728f89-cf85-4329-9749-b05192b60374_16 ,S ,0.00 ,0 ,0 ,0 ,0 ,0 ,0 ,0P ,0P_BT ,True ,True ,
1c728f89-cf85-4329-9749-b05192b60374_17 ,S ,0.00 ,0 ,0 ,0 ,0 ,0 ,0 ,0P ,0P_BT ,True ,True ,
1c728f89-cf85-4329-9749-b05192b60374_18 ,S ,0.00 ,0 ,0 ,0 ,0 ,0 ,0 ,0P ,0P_BT ,True ,True ,
1c728f89-cf85-4329-9749-b05192b60374_19 ,S ,0.00 ,0 ,0 ,0 ,0 ,0 ,0 ,0P ,0P_BT ,True ,True ,
1c728f89-cf85-4329-9749-b05192b60374_20 ,S ,0.00 ,0 ,0 ,0 ,0 ,0 ,0 ,0P ,0P_BT ,True ,True ,
1c728f89-cf85-4329-9749-b05192b60374_21 ,S ,0.00 ,0 ,0 ,0 ,0 ,0 ,0 ,0P ,0P_BT ,True ,True ,
1c728f89-cf85-4329-9749-b05192b60374_22 ,S ,0.00 ,0 ,0 ,0 ,0 ,0 ,0 ,0P ,0P_BT ,True ,True ,
1c728f89-cf85-4329-9749-b05192b60374_23 ,S ,0.00 ,0 ,0 ,0 ,0 ,0 ,0 ,0P ,0P_BT ,True ,True ,
1c728f89-cf85-4329-9749-b05192b60374_24 ,S ,0.00 ,0 ,0 ,0 ,0 ,0 ,0 ,0P ,0P_BT ,True ,True ,
1c728f89-cf85-4329-9749-b05192b60374_25 ,S ,0.00 ,0 ,0 ,0 ,0 ,0 ,0 ,0P ,0P_BT ,True ,True ,
8fb55734-5a8e-4796-981e-23f68a91bde1_1  ,S ,0.00 ,0 ,0 ,0 ,0 ,0 ,0 ,0P ,0P_BT ,True ,True ,
8fb55734-5a8e-4796-981e-23f68a91bde1_2  ,S ,0.00 ,0 ,0 ,0 ,0 ,0 ,0 ,0P ,0P_BT ,True ,True ,
8fb55734-5a8e-4796-981e-23f68a91bde1_3  ,S ,0.00 ,0 ,0 ,0 ,0 ,0 ,0 ,0P ,0P_BT ,True ,True ,
8fb55734-5a8e-4796-981e-23f68a91bde1_4  ,S ,0.00 ,0 ,0 ,0 ,0 ,0 ,0 ,0P ,0P_BT ,True ,True ,
8fb55734-5a8e-4796-981e-23f68a91bde1_5  ,S ,0.00 ,0 ,0 ,0 ,0 ,0 ,0 ,0P ,0P_BT ,True ,True ,
8fb55734-5a8e-4796-981e-23f68a91bde1_6  ,S ,0.00 ,0 ,0 ,0 ,0 ,0 ,0 ,0P ,0P_BT ,True ,True ,
8fb55734-5a8e-4796-981e-23f68a91bde1_7  ,S ,0.00 ,0 ,0 ,0 ,0 ,0 ,0 ,0P ,0P_BT ,True ,True ,
8fb55734-5a8e-4796-981e-23f68a91bde1_8  ,S ,0.00 ,0 ,0 ,0 ,0 ,0 ,0 ,0P ,0P_BT ,True ,True ,
8fb55734-5a8e-4796-981e-23f68a91bde1_9  ,S ,0.00 ,0 ,0 ,0 ,0 ,0 ,0 ,0P ,0P_BT ,True ,True ,
8fb55734-5a8e-4796-981e-23f68a91bde1_10 ,S ,0.00 ,0 ,0 ,0 ,0 ,0 ,0 ,0P ,0P_BT ,True ,True ,
8fb55734-5a8e-4796-981e-23f68a91bde1_11 ,S ,0.00 ,0 ,0 ,0 ,0 ,0 ,0 ,0P ,0P_BT ,True ,True ,
8fb55734-5a8e-4796-981e-23f68a91bde1_12 ,S ,0.00 ,0 ,0 ,0 ,0 ,0 ,0 ,0P ,0P_BT ,True ,True ,
8fb55734-5a8e-4796-981e-23f68a91bde1_13 ,S ,0.00 ,0 ,0 ,0 ,0 ,0 ,0 ,0P ,0P_BT ,True ,True ,
8fb55734-5a8e-4796-981e-23f68a91bde1_14 ,S ,0.00 ,0 ,0 ,0 ,0 ,0 ,0 ,0P ,0P_BT ,True ,True ,
8fb55734-5a8e-4796-981e-23f68a91bde1_15 ,S ,0.00 ,0 ,0 ,0 ,0 ,0 ,0 ,0P ,0P_BT ,True ,True ,
8fb55734-5a8e-4796-981e-23f68a91bde1_16 ,S ,0.00 ,0 ,0 ,0 ,0 ,0 ,0 ,0P ,0P_BT ,True ,True ,
8fb55734-5a8e-4796-981e-23f68a91bde1_17 ,S ,0.00 ,0 ,0 ,0 ,0 ,0 ,0 ,0P ,0P_BT ,True ,True ,
8fb55734-5a8e-4796-981e-23f68a91bde1_18 ,S ,0.00 ,0 ,0 ,0 ,0 ,0 ,0 ,0P ,0P_BT ,True ,True ,
8fb55734-5a8e-4796-981e-23f68a91bde1_19 ,S ,0.00 ,0 ,0 ,0 ,0 ,0 ,0 ,0P ,0P_BT ,True ,True ,
8fb55734-5a8e-4796-981e-23f68a91bde1_20 ,S ,0.00 ,0 ,0 ,0 ,0 ,0 ,0 ,0P ,0P_BT ,True ,True ,
8fb55734-5a8e-4796-981e-23f68a91bde1_21 ,S ,0.00 ,0 ,0 ,0 ,0 ,0 ,0 ,0P ,0P_BT ,True ,True ,
8fb55734-5a8e-4796-981e-23f68a91bde1_22 ,S ,0.00 ,0 ,0 ,0 ,0 ,0 ,0 ,0P ,0P_BT ,True ,True ,
8fb55734-5a8e-4796-981e-23f68a91bde1_23 ,S ,0.00 ,0 ,0 ,0 ,0 ,0 ,0 ,0P ,0P_BT ,True ,True ,
8fb55734-5a8e-4796-981e-23f68a91bde1_24 ,S ,0.00 ,0 ,0 ,0 ,0 ,0 ,0 ,0P ,0P_BT ,True ,True ,
0fa1fd37-db1e-4352-a871-8d260fad4025_1  ,S ,0.00 ,0 ,0 ,0 ,0 ,0 ,0 ,0P ,0P_BT ,True ,True ,
0fa1fd37-db1e-4352-a871-8d260fad4025_2  ,S ,0.00 ,0 ,0 ,0 ,0 ,0 ,0 ,0P ,0P_BT ,True ,True ,
0fa1fd37-db1e-4352-a871-8d260fad4025_3  ,S ,0.00 ,0 ,0 ,0 ,0 ,0 ,0 ,0P ,0P_BT ,True ,True ,
0fa1fd37-db1e-4352-a871-8d260fad4025_4  ,S ,0.00 ,0 ,0 ,0 ,0 ,0 ,0 ,0P ,0P_BT ,True ,True ,
0fa1fd37-db1e-4352-a871-8d260fad4025_5  ,S ,0.00 ,0 ,0 ,0 ,0 ,0 ,0 ,0P ,0P_BT ,True ,True ,
0fa1fd37-db1e-4352-a871-8d260fad4025_6  ,S ,0.00 ,0 ,0 ,0 ,0 ,0 ,0 ,0P ,0P_BT ,True ,True ,
0fa1fd37-db1e-4352-a871-8d260fad4025_7  ,S ,0.00 ,0 ,0 ,0 ,0 ,0 ,0 ,0P ,0P_BT ,True ,True ,
0fa1fd37-db1e-4352-a871-8d260fad4025_8  ,S ,0.00 ,0 ,0 ,0 ,0 ,0 ,0 ,0P ,0P_BT ,True ,True ,
0fa1fd37-db1e-4352-a871-8d260fad4025_9  ,S ,0.00 ,0 ,0 ,0 ,0 ,0 ,0 ,0P ,0P_BT ,True ,True ,
0fa1fd37-db1e-4352-a871-8d260fad4025_10 ,S ,0.00 ,0 ,0 ,0 ,0 ,0 ,0 ,0P ,0P_BT ,True ,True ,
0fa1fd37-db1e-4352-a871-8d260fad4025_11 ,S ,0.00 ,0 ,0 ,0 ,0 ,0 ,0 ,0P ,0P_BT ,True ,True ,
0fa1fd37-db1e-4352-a871-8d260fad4025_12 ,S ,0.00 ,0 ,0 ,0 ,0 ,0 ,0 ,0P ,0P_BT ,True ,True ,
0fa1fd37-db1e-4352-a871-8d260fad4025_13 ,S ,0.00 ,0 ,0 ,0 ,0 ,0 ,0 ,0P ,0P_BT ,True ,True ,
0fa1fd37-db1e-4352-a871-8d260fad4025_14 ,S ,0.00 ,0 ,0 ,0 ,0 ,0 ,0 ,0P ,0P_BT ,True ,True ,
0fa1fd37-db1e-4352-a871-8d260fad4025_15 ,S ,0.00 ,0 ,0 ,0 ,0 ,0 ,0 ,0P ,0P_BT ,True ,True ,
0fa1fd37-db1e-4352-a871-8d260fad4025_16 ,S ,0.00 ,0 ,0 ,0 ,0 ,0 ,0 ,0P ,0P_BT ,True ,True ,
0fa1fd37-db1e-4352-a871-8d260fad4025_17 ,S ,0.00 ,0 ,0 ,0 ,0 ,0 ,0 ,0P ,0P_BT ,True ,True ,
0fa1fd37-db1e-4352-a871-8d260fad4025_18 ,S ,0.00 ,0 ,0 ,0 ,0 ,0 ,0 ,0P ,0P_BT ,True ,True ,
0fa1fd37-db1e-4352-a871-8d260fad4025_19 ,S ,0.00 ,0 ,0 ,0 ,0 ,0 ,0 ,0P ,0P_BT ,True ,True ,
NudoTop_1                               ,x ,0.00 ,0 ,0 ,0 ,0 ,0 ,0 ,0P ,0P_BT ,True ,True ,